none
     RDKit          3D

 18 17  0  0  0  0  0  0  0  0999 V2000
   -2.3292    0.5822   -0.9766 C   0  0  0  0  0  0  0  0  0  0  0  0
   -1.5189    0.4001    0.2966 C   0  0  0  0  0  0  0  0  0  0  0  0
   -0.1133    0.0270    0.0012 N   0  0  0  0  0  0  0  0  0  0  0  0
    0.7885   -0.1783    1.1978 C   0  0  0  0  0  0  0  0  0  0  0  0
    2.1590   -0.5432    0.7257 C   0  0  0  0  0  0  0  0  0  0  0  0
    2.4937   -0.6573   -0.6008 C   0  0  0  0  0  0  0  0  0  0  0  0
    1.7355   -0.4819   -1.6225 O   0  0  0  0  0  0  0  0  0  0  0  0
   -3.3540    0.8543   -0.7259 H   0  0  0  0  0  0  0  0  0  0  0  0
   -1.9140    1.3731   -1.6025 H   0  0  0  0  0  0  0  0  0  0  0  0
   -2.3588   -0.3360   -1.5645 H   0  0  0  0  0  0  0  0  0  0  0  0
   -1.9350   -0.3865    0.9260 H   0  0  0  0  0  0  0  0  0  0  0  0
   -1.4909    1.3162    0.8865 H   0  0  0  0  0  0  0  0  0  0  0  0
    0.3706    0.6774   -0.6323 H   0  0  0  0  0  0  0  0  0  0  0  0
   -0.0169   -0.8051   -0.5956 H   0  0  0  0  0  0  0  0  0  0  0  0
    0.2980   -0.9462    1.8124 H   0  0  0  0  0  0  0  0  0  0  0  0
    0.7381    0.7574    1.7723 H   0  0  0  0  0  0  0  0  0  0  0  0
    2.9014   -0.7193    1.4907 H   0  0  0  0  0  0  0  0  0  0  0  0
    3.5464   -0.9340   -0.7885 H   0  0  0  0  0  0  0  0  0  0  0  0
  1  2  1  0
  2  3  1  0
  3  4  1  0
  4  5  1  0
  5  6  2  0
  6  7  1  0
  1  8  1  0
  1  9  1  0
  1 10  1  0
  2 11  1  0
  2 12  1  0
  3 13  1  0
  3 14  1  0
  4 15  1  0
  4 16  1  0
  5 17  1  0
  6 18  1  0
M  CHG  2   3   1   7  -1
M  END