18

C      -1.658244000000000      1.488233000000000     -0.484184000000000
C      -2.183792000000000      0.075053000000000     -0.345343000000000
C      -1.495727000000000     -0.952740000000000     -1.228625000000000
S       0.325664000000000     -1.394725000000000     -0.821968000000000
C       1.780445000000000     -1.043569000000000      1.158229000000000
N       2.721078000000000     -0.430156000000000      0.759729000000000
C       3.751765000000000      0.241984000000000      0.323078000000000
H      -2.218698000000000      2.202306000000000      0.125215000000000
H      -0.613592000000000      1.546155000000000     -0.172925000000000
H      -1.709499000000000      1.837039000000000     -1.518466000000000
H      -3.248486000000000      0.026372000000000     -0.597091000000000
H      -2.136442000000000     -0.248522000000000      0.700821000000000
H      -1.963468000000000     -1.931142000000000     -1.227872000000000
H      -1.449636000000000     -0.626714000000000     -2.271746000000000
H       0.755826000000000     -0.232485000000000     -1.388542000000000
H       0.997377000000000     -1.542073000000000      1.662532000000000
H       4.578202000000000      0.423397000000000      0.972038000000000
H       3.767227000000000      0.561588000000000     -0.691338000000000
