17

B      -2.353016535200000     -1.697441176100000      0.459763877300000
N       0.642296033900000      1.249145970500000      0.200069382700000
C       0.546350528400000      2.504288304000000     -0.520096147300000
C       1.158791457700000      0.121409100700000     -0.372399072100000
C       1.599762405600000     -0.983498877700000      0.255295615800000
O      -1.417217389600000     -1.524679290900000      1.433919114900000
O      -2.067406267200000     -1.808346677000000     -0.873487650000000
H      -3.497433681500000     -1.757525598100000      0.782072965600000
H       0.711327995200000      1.316557006600000      1.202965848400000
H       0.196331746300000      2.314350097100000     -1.534982087200000
H      -0.184630946200000      3.149265333600000     -0.034158088000000
H       1.498856342800000      3.043454166000000     -0.581780651100000
H       1.152019723200000      0.150979439700000     -1.457937631700000
H       1.958067970300000     -1.824348470500000     -0.317368346700000
H       1.691781080400000     -1.036180019400000      1.333571163300000
H      -0.509656896700000     -1.463498370500000      1.097924911800000
H      -1.126223557300000     -1.753930958000000     -1.073373185900000
