15

C      -2.233669419000000      0.988752754000000      0.129258843300000
N      -1.413269216100000      0.099378289000000      0.949657216300000
C      -0.188404968800000     -0.226982411500000      0.644499575500000
S       0.829007363600000     -1.261202196300000      1.514685886200000
C       2.650821947900000     -0.643949706900000     -0.389035795100000
C       1.954183912400000      0.105168195800000     -1.325355009500000
N       1.196181581300000      0.720452334200000     -1.976563911800000
H      -3.138458531100000      0.470965602300000     -0.187603089300000
H      -1.657430257200000      1.281170569300000     -0.746143320400000
H      -2.508189296900000      1.875574709000000      0.699953003800000
H      -1.824505004900000     -0.293928041900000      1.788953535000000
H       0.211795473900000      0.207786374800000     -0.277147255400000
H      -0.225027786800000     -1.561862001500000      2.438833510200000
H       3.412599237400000     -0.116090584600000      0.173978518700000
H       2.934364954600000     -1.645233857700000     -0.693014106500000
