19

C      -2.223090000000000      1.057452000000000     -0.252772000000000
C      -1.710296000000000     -0.303337000000000     -0.687978000000000
N      -0.463616000000000     -0.651531000000000     -0.009625000000000
C       0.202041000000000     -1.759185000000000     -0.207330000000000
S       1.674497000000000     -1.984026000000000      0.598538000000000
N       1.719451000000000      0.224588000000000      1.067343000000000
C       1.932410000000000      1.350489000000000      0.167978000000000
H      -3.148699000000000      1.282864000000000     -0.776973000000000
H      -2.425372000000000      1.076342000000000      0.816701000000000
H      -1.503056000000000      1.840786000000000     -0.479943000000000
H      -2.457318000000000     -1.070356000000000     -0.471022000000000
H      -1.538095000000000     -0.315606000000000     -1.765008000000000
H       0.040441000000000     -0.048159000000000      0.683242000000000
H      -0.163574000000000     -2.493747000000000     -0.911091000000000
H       1.645748000000000     -3.396509000000000      0.298721000000000
H       2.494939000000000      0.149773000000000      1.717648000000000
H       1.961850000000000      2.326417000000000      0.680275000000000
H       2.852371000000000      1.294683000000000     -0.441504000000000
H       1.109368000000000      1.419061000000000     -0.555908000000000
