13

C      -1.148289000000000      0.503088000000000     -0.079474000000000
C      -0.197248000000000     -0.320403000000000      0.821579000000000
C       0.945802000000000      0.667639000000000      0.487392000000000
C       0.197200000000000      0.320344000000000     -0.821609000000000
C       0.202393000000000     -1.170696000000000     -0.407926000000000
I       0.669276000000000      1.086871000000000     -2.786990000000000
I      -0.668871000000000     -1.086864000000000      2.787093000000000
H      -1.386362000000000      1.508977000000000      0.255611000000000
H      -2.006136000000000     -0.022555000000000     -0.490366000000000
H       0.834432000000000      1.683485000000000      0.856745000000000
H       1.959850000000000      0.288899000000000      0.583151000000000
H       1.171283000000000     -1.660843000000000     -0.366480000000000
H      -0.573329000000000     -1.797944000000000     -0.838727000000000
