13

C       1.131128607400000     -0.967830572900000      0.134243695700000
C      -0.118596354200000     -1.291164147300000     -0.309642820700000
C      -1.084134934600000     -0.274919709000000     -0.504532371100000
N      -0.640399308000000      1.012502886900000     -0.442623878900000
C       0.568846221900000      1.352467556500000      0.081395175100000
C       1.477341036000000      0.385398010100000      0.378320469200000
Br     -2.663390604800000     -0.517461839400000      1.481708581100000
H       1.860022855700000     -1.746311386800000      0.313142968000000
H      -0.418210436700000     -2.315364295500000     -0.468344491400000
H      -1.985035736700000     -0.442806689900000     -1.063270678500000
H      -1.322286660000000      1.740879862500000     -0.587137950000000
H       0.750891356800000      2.407877787700000      0.213354569300000
H       2.443823967300000      0.656732526900000      0.773386742200000
