18

C      -2.469083000000000     -0.564353000000000      0.339065000000000
C      -1.601156000000000     -0.634124000000000     -0.914727000000000
N      -0.174505000000000     -0.448848000000000     -0.648724000000000
C       0.349214000000000      0.791424000000000     -0.492302000000000
S       2.201762000000000      0.889975000000000     -0.195898000000000
C       2.585739000000000     -0.889788000000000     -0.167606000000000
O      -0.335944000000000      1.787870000000000     -0.541813000000000
H      -3.517547000000000     -0.721193000000000      0.080972000000000
H      -2.377537000000000      0.412281000000000      0.811026000000000
H      -2.179957000000000     -1.328259000000000      1.061825000000000
H      -1.709037000000000     -1.603781000000000     -1.401803000000000
H      -1.907590000000000      0.131546000000000     -1.624844000000000
H       0.408206000000000     -1.258367000000000     -0.618893000000000
H       1.616113000000000      3.604505000000000     -0.239050000000000
H       3.663817000000000     -0.964086000000000     -0.034092000000000
H       2.338041000000000     -1.374376000000000     -1.110173000000000
H       2.111689000000000     -1.389163000000000      0.674880000000000
H       0.997776000000000      3.558737000000000     -0.614783000000000
