16

C       2.513761000000000      0.492773000000000     -0.407260000000000
N       1.324956000000000     -0.125912000000000      0.147363000000000
C       1.328215000000000     -1.368348000000000      0.341029000000000
S      -0.072468000000000     -2.257028000000000      0.968801000000000
N      -1.863997000000000      0.493932000000000      0.568199000000000
C      -2.707518000000000      1.040226000000000     -0.485026000000000
H       2.833759000000000      1.309731000000000      0.252050000000000
H       3.347947000000000     -0.216915000000000     -0.539878000000000
H       2.262442000000000      0.937726000000000     -1.379366000000000
H      -0.867945000000000      0.714397000000000      0.403514000000000
H       2.197458000000000     -2.002438000000000      0.128603000000000
H       0.660597000000000     -3.382679000000000      1.132721000000000
H      -2.109924000000000      0.866483000000000      1.476080000000000
H      -3.751752000000000      0.779301000000000     -0.296857000000000
H      -2.434345000000000      0.586520000000000     -1.438936000000000
H      -2.661186000000000      2.132230000000000     -0.610785000000000
