7

C       1.006954000000000     -0.064760000000000      0.221170000000000
N       2.171161000000000     -0.046812000000000      0.185590000000000
N      -0.748529000000000      2.989524000000000     -0.980627000000000
N      -1.770169000000000      2.643614000000000     -0.814447000000000
N      -2.400854000000000     -2.513581000000000      1.299605000000000
N      -1.426102000000000     -2.976533000000000      1.463110000000000
H       3.167540000000000     -0.031451000000000      0.155140000000000
