13

C      -2.145892000000000     -0.565930000000000      1.631082000000000
S      -1.615904000000000      1.093045000000000      1.062708000000000
C       1.659262000000000      0.292980000000000      0.241628000000000
N       1.059777000000000      0.356079000000000     -0.892866000000000
N       1.589644000000000      0.302380000000000     -2.230661000000000
H      -2.005660000000000     -0.667562000000000      2.704476000000000
H      -1.598726000000000     -1.348732000000000      1.111325000000000
H      -3.204858000000000     -0.657695000000000      1.400340000000000
H      -0.281529000000000      0.913308000000000      1.280126000000000
H       2.728612000000000      0.072041000000000      0.073850000000000
H       0.067328000000000      0.593559000000000     -0.912681000000000
H       1.165307000000000     -0.494190000000000     -2.699964000000000
H       2.582639000000000      0.110716000000000     -2.135406000000000
