13

C      -2.060290000000000      1.041403000000000      0.404377000000000
C      -1.398166000000000     -0.112686000000000      0.447330000000000
N      -0.080223000000000     -0.222217000000000      0.002418000000000
C       0.500098000000000     -1.351570000000000      0.058182000000000
S       2.156423000000000     -1.508062000000000     -0.501011000000000
O       1.790248000000000      1.805382000000000     -1.162751000000000
H      -3.080467000000000      1.106686000000000      0.753056000000000
H      -1.591786000000000      1.935791000000000      0.017098000000000
H      -1.872307000000000     -1.015029000000000      0.835565000000000
H       1.069188000000000      1.259931000000000     -0.805605000000000
H       0.025388000000000     -2.259166000000000      0.439840000000000
H       2.299521000000000     -2.819671000000000     -0.232289000000000
H       2.242372000000000      2.139207000000000     -0.382908000000000
