15

C       2.715599000000000      0.420970000000000      0.313714000000000
N       1.314841000000000      0.135860000000000     -0.016019000000000
C       0.610558000000000      0.521545000000000     -1.035175000000000
S      -1.600051000000000     -1.619270000000000     -0.293152000000000
O      -0.822958000000000     -1.446182000000000      0.983696000000000
N      -2.855700000000000     -0.448056000000000     -0.492330000000000
C      -2.717198000000000      0.624013000000000      0.164258000000000
H       3.286636000000000     -0.507250000000000      0.371381000000000
H       2.781593000000000      0.926412000000000      1.278708000000000
H       3.137755000000000      1.059197000000000     -0.459706000000000
H       0.819183000000000     -0.470337000000000      0.643886000000000
H       1.254139000000000      1.151812000000000     -1.680112000000000
H      -2.564936000000000     -2.552854000000000      0.026165000000000
H      -3.453206000000000      1.411003000000000      0.019324000000000
H      -1.906256000000000      0.793137000000000      0.871976000000000
