16

C      -2.738710000000000      0.718972000000000     -0.838114000000000
C      -2.436020000000000     -0.610464000000000     -0.160781000000000
S      -1.587614000000000     -0.456179000000000      1.463475000000000
C       1.854333000000000      0.630431000000000      0.035988000000000
N       2.603239000000000     -0.315910000000000      0.247006000000000
C       3.282561000000000     -1.352537000000000      0.512719000000000
S       2.308995000000000      2.160611000000000     -0.598888000000000
H      -3.279715000000000      0.555661000000000     -1.774300000000000
H      -3.346991000000000      1.355718000000000     -0.195784000000000
H      -1.819706000000000      1.257878000000000     -1.071137000000000
H      -1.837467000000000     -1.254529000000000     -0.803515000000000
H      -3.356364000000000     -1.148177000000000      0.067983000000000
H      -0.427687000000000      0.054347000000000      0.992545000000000
H       3.713886000000000     -1.479842000000000      1.498353000000000
H       3.415754000000000     -2.120683000000000     -0.239510000000000
H       3.651504000000000      2.004702000000000     -0.780249000000000
