19

B      -1.099688000000000     -1.088558000000000     -0.920813000000000
C       0.276242000000000     -1.014181000000000     -0.156248000000000
C       1.204815000000000      0.134457000000000     -0.584656000000000
C       2.480306000000000      0.218652000000000      0.252388000000000
N      -1.549180000000000      1.481172000000000      1.786645000000000
O      -1.795354000000000      0.068617000000000     -1.173035000000000
O      -1.690458000000000     -2.256898000000000     -1.340261000000000
H       0.814379000000000     -1.966619000000000     -0.227888000000000
H       0.038315000000000     -0.882108000000000      0.907025000000000
H       1.469587000000000      0.018807000000000     -1.640266000000000
H       0.659612000000000      1.077297000000000     -0.512737000000000
H       3.123790000000000      1.035796000000000     -0.079980000000000
H       3.058849000000000     -0.706204000000000      0.187075000000000
H       2.242455000000000      0.386540000000000      1.304873000000000
H      -1.794047000000000      1.296980000000000      0.818419000000000
H      -1.241332000000000      2.445816000000000      1.835947000000000
H      -2.405236000000000      1.421800000000000      2.326541000000000
H      -2.624005000000000     -0.103180000000000     -1.633324000000000
H      -1.169048000000000     -3.039917000000000     -1.149704000000000
