14

C      -1.971399000000000     -1.281158000000000      0.566115000000000
C      -1.079709000000000      0.751105000000000     -0.549308000000000
S       0.662824000000000      0.889712000000000     -0.311236000000000
C       4.021949000000000     -1.151037000000000      2.037037000000000
N       2.232854000000000     -0.064119000000000      0.786330000000000
N       0.502276000000000      1.123704000000000     -1.903408000000000
H      -2.988787000000000     -1.307090000000000      0.239224000000000
H      -2.142983000000000     -1.247691000000000      2.314160000000000
H      -1.610259000000000     -2.719278000000000     -0.046106000000000
H      -0.795696000000000      0.768375000000000     -2.293557000000000
H      -1.431029000000000      2.191694000000000      0.089669000000000
H       0.647875000000000      1.898274000000000      0.582105000000000
H       1.606801000000000     -0.131996000000000      3.215115000000000
H       2.345282000000000      0.279505000000000     -4.174697000000000
