12

C      -1.706728000000000     -0.335181000000000     -0.244633000000000
N      -0.341008000000000     -0.108281000000000      0.191435000000000
C       0.115088000000000      1.065500000000000      0.168678000000000
S       1.764394000000000      1.418561000000000      0.703111000000000
O       1.806501000000000     -1.980653000000000      0.992746000000000
H      -1.708090000000000     -1.065309000000000     -1.055769000000000
H      -2.278822000000000     -0.766978000000000      0.578427000000000
H      -2.208420000000000      0.578176000000000     -0.586449000000000
H       0.999097000000000     -1.490349000000000      0.767394000000000
H      -0.460477000000000      1.931731000000000     -0.171818000000000
H       1.699574000000000      2.734757000000000      0.431166000000000
H       2.318892000000000     -1.981974000000000      0.179737000000000
