13

C      -1.170326191100000     -0.434485753400000     -0.107721705900000
C      -0.693027798700000      0.880309149800000      0.561075114500000
N       0.638021763600000      1.086171109600000     -0.032857524100000
C       1.038243627700000     -0.057741875000000     -0.627447458300000
N      -0.041306032500000     -0.785178843000000     -0.984736346400000
Br      2.200485676500000     -1.391007732100000      1.164239758300000
H      -1.339451822800000     -1.215863264100000      0.633401432200000
H      -2.076586704700000     -0.296668746600000     -0.695002922300000
H      -1.343499305000000      1.722757082400000      0.332232469100000
H      -0.618935291000000      0.768867223700000      1.642975922200000
H       1.329113113200000      1.594393491300000      0.493728138700000
H       1.963690671100000     -0.117514587000000     -1.170400310100000
H       0.113578303700000     -1.754037255500000     -1.209486578000000
