17

C      -1.672768129700000      1.025948364400000     -0.462118237600000
N      -1.111399147000000      0.162400218800000      0.567639954800000
C       0.011709666000000     -0.528690231200000      0.391893864500000
C       1.073916514500000     -0.012447580300000     -0.556987424400000
N       1.610524169400000      1.248101545000000     -0.028757582100000
N       0.447802242500000     -1.321586499500000      1.407957099800000
Br     -0.781312350400000     -2.439668043200000     -1.329116557600000
H      -0.967992689400000      1.819753048300000     -0.698265154300000
H      -1.905943782000000      0.439680117500000     -1.355118825200000
H      -2.583390397200000      1.474069089800000     -0.072568573300000
H      -1.781587383900000     -0.243699108400000      1.201921446600000
H       0.624494936600000      0.169444660900000     -1.527168095500000
H       1.806562269800000     -0.810790321600000     -0.698512381200000
H       2.178127344000000      1.085905149800000      0.794369837800000
H       2.202475037100000      1.687425777500000     -0.722384996000000
H      -0.270323740500000     -1.743060221000000      1.979964972500000
H       1.119105450200000     -2.012785966800000      1.107250651100000
