16

B       0.389422000000000      0.529981000000000     -0.914050000000000
C      -0.986199000000000      0.882846000000000     -0.209515000000000
C      -1.955358000000000     -0.288435000000000     -0.006821000000000
N       1.790284000000000     -0.927680000000000      1.422317000000000
O       1.446549000000000      1.405668000000000     -0.936989000000000
O       0.617106000000000     -0.640593000000000     -1.589974000000000
H      -0.769284000000000      1.341804000000000      0.760413000000000
H      -1.478495000000000      1.668326000000000     -0.796951000000000
H      -2.239788000000000     -0.748426000000000     -0.958104000000000
H      -2.881669000000000      0.028317000000000      0.475041000000000
H      -1.506296000000000     -1.060086000000000      0.621084000000000
H       1.893719000000000     -1.546117000000000      0.625192000000000
H       2.463818000000000     -0.182782000000000      1.280760000000000
H       2.083703000000000     -1.443306000000000      2.244375000000000
H       1.265848000000000      2.218541000000000     -0.460485000000000
H      -0.133361000000000     -1.238059000000000     -1.556292000000000
