13

C       2.524904000000000      0.751207000000000      1.178616000000000
C       1.552371000000000      0.246877000000000      0.431625000000000
S       1.710611000000000     -0.837477000000000     -0.952178000000000
C      -2.134398000000000     -0.513860000000000     -1.055687000000000
N      -2.149160000000000      0.261504000000000     -0.152904000000000
N      -1.886179000000000      0.979490000000000      0.826584000000000
S      -2.881551000000000     -1.938441000000000     -1.601301000000000
H       2.287330000000000      1.412145000000000      2.000885000000000
H       3.570144000000000      0.531963000000000      1.004560000000000
H       0.516787000000000      0.489613000000000      0.635889000000000
H       3.051307000000000     -0.950318000000000     -0.916085000000000
H      -2.498233000000000      1.799977000000000      0.813946000000000
H      -3.663934000000000     -2.232682000000000     -0.529669000000000
