15

C       1.111143960300000      0.956800824300000      0.843703110500000
C       1.642257720700000      0.511487686400000     -0.363767428800000
N       1.851316156700000     -0.709529383000000     -0.812250209500000
O       1.475944667400000     -1.643819063000000      0.277610238200000
S      -1.576454362700000      1.627883495100000      0.242642671800000
C      -1.903874654000000      0.063089534100000     -0.376823766100000
N      -1.086721937400000     -0.941293468400000     -0.464851682600000
H       1.151510644000000      2.015535838900000      1.055580799500000
H       1.064056050300000      0.293853496000000      1.695206291800000
H       1.882818617700000      1.243265387200000     -1.133147977300000
H       1.772259364200000     -2.479083473800000     -0.094482797700000
H      -2.924254091900000      1.940134025500000      0.108453270500000
H      -2.899136901100000     -0.091323275400000     -0.774723173200000
H      -0.123926320000000     -0.987704278300000     -0.094375624200000
H      -1.436938914100000     -1.799297345700000     -0.864358912900000
