13

C      -2.344506000000000      0.472446000000000      0.616406000000000
C      -1.252944000000000     -0.271306000000000      0.508422000000000
S      -0.297632000000000     -0.344890000000000     -0.949863000000000
C       1.363586000000000      0.151009000000000     -0.314106000000000
N       1.395400000000000      0.462455000000000      0.990811000000000
O       2.366646000000000      0.070234000000000     -1.008937000000000
H      -2.639460000000000      1.163764000000000     -0.166249000000000
H      -2.980466000000000      0.384979000000000      1.482405000000000
H      -1.001867000000000     -0.985282000000000      1.300491000000000
H       0.957017000000000     -0.441531000000000     -2.865085000000000
H       2.293326000000000      0.656052000000000      1.390413000000000
H       0.559383000000000      0.627388000000000      1.527644000000000
H       1.581517000000000     -0.206708000000000     -2.512353000000000
