10

C       2.114588000000000      0.603541000000000     -1.138127000000000
C       1.970450000000000      0.291848000000000      0.117660000000000
S       1.797445000000000     -0.082266000000000      1.624941000000000
S      -2.187997000000000      0.656501000000000      0.046259000000000
N      -1.942768000000000     -0.991838000000000      0.500970000000000
H       3.078758000000000      0.490719000000000     -1.620308000000000
H       1.283839000000000      0.976960000000000     -1.722717000000000
H      -0.977815000000000     -1.140769000000000      0.768848000000000
H      -2.588979000000000      0.430113000000000     -1.224003000000000
H      -2.547521000000000     -1.234808000000000      1.274807000000000
