16

C      -1.207990000000000     -3.241602000000000     -1.180012000000000
N      -0.471697000000000     -2.241849000000000     -1.604517000000000
C       0.200745000000000     -1.328795000000000     -1.992208000000000
S       1.224951000000000     -0.069552000000000     -0.216778000000000
C       0.607535000000000      1.645170000000000      0.039595000000000
C       0.492827000000000      2.055451000000000      1.491757000000000
O      -0.478937000000000      1.202163000000000      2.084486000000000
H      -1.315739000000000     -3.408242000000000     -0.118780000000000
H      -1.660399000000000     -3.917940000000000     -1.891420000000000
H       0.338679000000000     -0.568966000000000     -2.727572000000000
H       0.232779000000000     -0.610049000000000      0.486948000000000
H      -0.359214000000000      1.711039000000000     -0.442239000000000
H       1.312659000000000      2.300958000000000     -0.480250000000000
H       0.177984000000000      3.102818000000000      1.539370000000000
H       1.457395000000000      1.969423000000000      1.993420000000000
H      -0.551578000000000      1.399973000000000      3.018201000000000
