14

C       1.911035000000000     -0.309022000000000     -0.222928000000000
C       1.634813000000000     -1.768616000000000     -0.423394000000000
N      -1.282442000000000      1.646996000000000     -0.502944000000000
C      -2.412517000000000      1.593473000000000      0.056086000000000
S      -2.732214000000000      0.376067000000000      1.303830000000000
N       1.929126000000000     -2.733870000000000      0.341726000000000
H       0.977927000000000      0.261162000000000     -0.229711000000000
H       2.436484000000000     -0.127758000000000      0.716037000000000
H       2.520215000000000      0.074926000000000     -1.046488000000000
H       1.110345000000000     -2.021281000000000     -1.349316000000000
H      -1.247210000000000      2.392017000000000     -1.195558000000000
H      -3.258670000000000      2.249652000000000     -0.157144000000000
H      -4.000963000000000      0.759871000000000      1.533334000000000
H       2.414071000000000     -2.393616000000000      1.176471000000000
