16

C       2.172916420400000      1.201875225300000     -0.270055119300000
C       1.718261041900000      0.916874329400000      0.997125655500000
N       0.830443889700000     -0.027040090900000      1.321264805800000
S      -0.843152764300000     -1.380687254200000      0.394206260100000
C      -1.215130255300000     -0.121505585800000     -0.695235397800000
N      -0.691303356500000      1.068131955600000     -0.783255400900000
N      -2.196192534300000     -2.401695298300000     -0.264703248000000
H       2.883767168200000      2.001189568700000     -0.416941935500000
H       2.051823480000000      0.492625630400000     -1.079711324200000
H       2.074758701600000      1.576066353800000      1.795493411800000
H       0.643832064500000     -0.051287567100000      2.316508225800000
H      -2.007496284200000     -0.393513131300000     -1.382940133600000
H       0.240626575400000      1.332872060200000     -0.386690860700000
H      -1.028251033500000      1.660361322900000     -1.528061232800000
H      -2.842053619500000     -2.575746635100000      0.498874475700000
H      -1.792849484200000     -3.298520903500000     -0.515878191900000
