16

C      -3.060763964400000      0.228124291000000     -0.012707997100000
C      -1.850587961000000      0.371449788300000     -0.545325169800000
C      -0.615994763200000      0.029854451600000      0.160323984400000
N       0.383309013500000     -0.529144302000000     -0.546784346300000
C       1.676667399700000     -0.861309710600000      0.050027093900000
N       2.690116453700000     -0.002045412100000     -0.522782821000000
I       0.159377597400000      2.369284031100000      1.041278552100000
H      -3.952297912700000      0.467301524600000     -0.574902917800000
H      -3.197365614600000     -0.112361790300000      1.005888311300000
H      -1.737168300400000      0.728542250100000     -1.563123530200000
H      -0.708877694700000     -0.313761251400000      1.179293561100000
H       0.469406197800000     -0.242717814400000     -1.513697423700000
H       1.551955917100000     -0.777829574500000      1.134530253500000
H       1.925942077400000     -1.897212957900000     -0.187127147500000
H       3.617296506500000     -0.383116665800000     -0.390837083700000
H       2.648985047800000      0.924943142400000     -0.112293079100000
