16

C       0.828455686700000     -0.158135679700000      0.359318132600000
C      -0.694516238600000      0.049151998600000      0.437749432000000
N      -1.493776583100000     -1.013660740100000      0.372730576900000
N      -1.114827599300000      1.213873915500000      0.892974743700000
Br     -0.798453040600000      0.533187153000000     -2.481959387000000
N       1.265919222400000     -1.241800396800000     -0.484692233300000
N       1.407433611800000      1.135573161000000      0.044087111100000
H       1.113151685800000     -0.410256708200000      1.387724107900000
H      -1.138051066300000     -1.763007777500000     -0.202080805400000
H      -2.485257612800000     -0.860307650600000      0.270958751100000
H      -0.422111898600000      1.951434852100000      0.832675776900000
H      -2.090110401800000      1.463198831600000      0.863047171500000
H       1.147465697100000     -2.162580564700000     -0.086266677100000
H       0.868559181100000     -1.162799739200000     -1.419569604100000
H       2.413107701100000      1.086252141600000      0.146878502900000
H       1.193011655200000      1.339877203300000     -0.933575589500000
