11

C      -1.557316000000000     -2.208843000000000     -0.953146000000000
C      -2.062445000000000     -1.404510000000000     -0.060452000000000
S      -2.668249000000000     -0.439868000000000      1.010161000000000
S       1.666635000000000      0.457037000000000     -0.356242000000000
C       1.582659000000000      1.712211000000000      0.971113000000000
H      -0.489793000000000     -2.237710000000000     -1.121423000000000
H      -2.197740000000000     -2.864025000000000     -1.528419000000000
H       0.554569000000000      1.967434000000000      1.185395000000000
H       0.995989000000000      1.152199000000000     -1.291921000000000
H       2.139948000000000      2.606601000000000      0.706007000000000
H       2.035743000000000      1.259474000000000      1.848759000000000
