16

C      -1.319314652000000     -0.585608680500000     -0.161121205600000
C      -0.986444550900000      0.792069787200000      0.404285309500000
N       0.034775376300000      1.424712824400000     -0.434115860700000
C       1.103981747200000      0.686255261100000     -0.814960941500000
N       0.912954473400000     -0.613332871900000     -1.143813609200000
C      -0.042757512400000     -1.398004326000000     -0.358352481200000
Cl      2.505387279900000      0.642901480100000      1.043635954400000
H      -1.988713731600000     -1.111240959600000      0.520028376800000
H      -1.834513939600000     -0.474725688600000     -1.117051882900000
H      -1.867587819100000      1.432538992400000      0.407785362300000
H      -0.614837160000000      0.705740228200000      1.430295073100000
H       0.287756675500000      2.358716271000000     -0.152311072800000
H       1.883155903000000      1.206447041200000     -1.344651450700000
H       1.774643272100000     -1.091995365000000     -1.353933923300000
H      -0.250414591600000     -2.320537056800000     -0.899128230000000
H       0.401930492900000     -1.653936682700000      0.608597407500000
