13

B       0.401929000000000      1.033759000000000     -0.548982000000000
C       1.454306000000000      0.256717000000000      0.321585000000000
N      -1.456554000000000     -1.899611000000000      0.703377000000000
O      -0.851190000000000      1.253796000000000     -0.030936000000000
O       0.627610000000000      1.500996000000000     -1.821158000000000
H       1.498152000000000      0.660180000000000      1.335373000000000
H       2.464696000000000      0.264004000000000     -0.090888000000000
H       1.132606000000000     -0.784566000000000      0.417086000000000
H      -2.238786000000000     -2.291980000000000      0.191554000000000
H      -1.590981000000000     -2.151151000000000      1.676287000000000
H      -1.539365000000000     -0.889060000000000      0.645585000000000
H      -1.415723000000000      1.723834000000000     -0.654087000000000
H       1.513299000000000      1.323083000000000     -2.144797000000000
