20

C      -1.961396000000000     -0.376131000000000      0.916919000000000
C      -1.836675000000000     -0.012153000000000     -0.560476000000000
C      -2.526654000000000      1.300617000000000     -0.910414000000000
N      -0.389309000000000      0.024967000000000     -0.960736000000000
C       0.567541000000000      0.810089000000000     -0.570781000000000
S       2.646293000000000     -1.460049000000000      1.202973000000000
C       3.940848000000000     -0.517160000000000      0.322893000000000
H      -1.501404000000000     -1.342589000000000      1.124704000000000
H      -1.474290000000000      0.373683000000000      1.541585000000000
H      -3.012023000000000     -0.427362000000000      1.206195000000000
H      -2.278391000000000     -0.811114000000000     -1.158847000000000
H      -3.583645000000000      1.253448000000000     -0.644556000000000
H      -2.079924000000000      2.130643000000000     -0.362490000000000
H      -2.451477000000000      1.512750000000000     -1.976825000000000
H      -0.140595000000000     -0.704875000000000     -1.620603000000000
H       0.138155000000000      1.527796000000000      0.157177000000000
H       3.435894000000000     -2.322348000000000      1.876724000000000
H       4.571915000000000      0.027215000000000      1.020848000000000
H       4.546776000000000     -1.168762000000000     -0.302153000000000
H       3.388362000000000      0.181334000000000     -0.302137000000000
